FoamFile
{
    version 2.0;
    format ascii;
    class dictionary;
    object blockMeshDict;
}

scaleToMeters 1;

vertices
(
    (-0.500000 -0.500000 -0.500000)
    (-0.500000 -0.500000 -0.055000)
    (-0.500000 -0.500000 0.055000)
    (-0.500000 -0.500000 0.500000)
    (-0.500000 -0.025000 -0.500000)
    (-0.500000 -0.025000 -0.055000)
    (-0.500000 -0.025000 0.055000)
    (-0.500000 -0.025000 0.500000)
    (-0.500000 0.025000 -0.500000)
    (-0.500000 0.025000 -0.055000)
    (-0.500000 0.025000 0.055000)
    (-0.500000 0.025000 0.500000)
    (-0.500000 1.000000 -0.500000)
    (-0.500000 1.000000 -0.055000)
    (-0.500000 1.000000 0.055000)
    (-0.500000 1.000000 0.500000)
    (-0.055000 -0.500000 -0.500000)
    (-0.055000 -0.500000 -0.055000)
    (-0.055000 -0.500000 0.055000)
    (-0.055000 -0.500000 0.500000)
    (-0.055000 -0.025000 -0.500000)
    (-0.055000 -0.025000 -0.055000)
    (-0.055000 -0.025000 0.055000)
    (-0.055000 -0.025000 0.500000)
    (-0.055000 0.025000 -0.500000)
    (-0.055000 0.025000 -0.055000)
    (-0.055000 0.025000 0.055000)
    (-0.055000 0.025000 0.500000)
    (-0.055000 1.000000 -0.500000)
    (-0.055000 1.000000 -0.055000)
    (-0.055000 1.000000 0.055000)
    (-0.055000 1.000000 0.500000)
    (0.055000 -0.500000 -0.500000)
    (0.055000 -0.500000 -0.055000)
    (0.055000 -0.500000 0.055000)
    (0.055000 -0.500000 0.500000)
    (0.055000 -0.025000 -0.500000)
    (0.055000 -0.025000 -0.055000)
    (0.055000 -0.025000 0.055000)
    (0.055000 -0.025000 0.500000)
    (0.055000 0.025000 -0.500000)
    (0.055000 0.025000 -0.055000)
    (0.055000 0.025000 0.055000)
    (0.055000 0.025000 0.500000)
    (0.055000 1.000000 -0.500000)
    (0.055000 1.000000 -0.055000)
    (0.055000 1.000000 0.055000)
    (0.055000 1.000000 0.500000)
    (0.500000 -0.500000 -0.500000)
    (0.500000 -0.500000 -0.055000)
    (0.500000 -0.500000 0.055000)
    (0.500000 -0.500000 0.500000)
    (0.500000 -0.025000 -0.500000)
    (0.500000 -0.025000 -0.055000)
    (0.500000 -0.025000 0.055000)
    (0.500000 -0.025000 0.500000)
    (0.500000 0.025000 -0.500000)
    (0.500000 0.025000 -0.055000)
    (0.500000 0.025000 0.055000)
    (0.500000 0.025000 0.500000)
    (0.500000 1.000000 -0.500000)
    (0.500000 1.000000 -0.055000)
    (0.500000 1.000000 0.055000)
    (0.500000 1.000000 0.500000)
);

blocks
(
    hex (0 16 20 4 1 17 21 5) (20 22 20) simpleGrading (0.15 0.15 0.15)
    hex (1 17 21 5 2 18 22 6) (20 22 22) simpleGrading (0.15 0.15 1)
    hex (2 18 22 6 3 19 23 7) (20 22 20) simpleGrading (0.15 0.15 6.67)
    hex (4 20 24 8 5 21 25 9) (20 14 20) simpleGrading (0.15 1 0.15)
    hex (5 21 25 9 6 22 26 10) (20 14 22) simpleGrading (0.15 1 1)
    hex (6 22 26 10 7 23 27 11) (20 14 20) simpleGrading (0.15 1 6.67)
    hex (8 24 28 12 9 25 29 13) (20 30 20) simpleGrading (0.15 8.0 0.15)
    hex (9 25 29 13 10 26 30 14) (20 30 22) simpleGrading (0.15 8.0 1)
    hex (10 26 30 14 11 27 31 15) (20 30 20) simpleGrading (0.15 8.0 6.67)
    hex (16 32 36 20 17 33 37 21) (22 22 20) simpleGrading (1 0.15 0.15)
    hex (17 33 37 21 18 34 38 22) (22 22 22) simpleGrading (1 0.15 1)
    hex (18 34 38 22 19 35 39 23) (22 22 20) simpleGrading (1 0.15 6.67)
    hex (20 36 40 24 21 37 41 25) (22 14 20) simpleGrading (1 1 0.15)
    hex (22 38 42 26 23 39 43 27) (22 14 20) simpleGrading (1 1 6.67)
    hex (24 40 44 28 25 41 45 29) (22 30 20) simpleGrading (1 8.0 0.15)
    hex (25 41 45 29 26 42 46 30) (22 30 22) simpleGrading (1 8.0 1)
    hex (26 42 46 30 27 43 47 31) (22 30 20) simpleGrading (1 8.0 6.67)
    hex (32 48 52 36 33 49 53 37) (20 22 20) simpleGrading (6.67 0.15 0.15)
    hex (33 49 53 37 34 50 54 38) (20 22 22) simpleGrading (6.67 0.15 1)
    hex (34 50 54 38 35 51 55 39) (20 22 20) simpleGrading (6.67 0.15 6.67)
    hex (36 52 56 40 37 53 57 41) (20 14 20) simpleGrading (6.67 1 0.15)
    hex (37 53 57 41 38 54 58 42) (20 14 22) simpleGrading (6.67 1 1)
    hex (38 54 58 42 39 55 59 43) (20 14 20) simpleGrading (6.67 1 6.67)
    hex (40 56 60 44 41 57 61 45) (20 30 20) simpleGrading (6.67 8.0 0.15)
    hex (41 57 61 45 42 58 62 46) (20 30 22) simpleGrading (6.67 8.0 1)
    hex (42 58 62 46 43 59 63 47) (20 30 20) simpleGrading (6.67 8.0 6.67)
);

edges
(
);

boundary
(
    farField
    {
        type patch;
        faces
        (
            (0 1 5 4)
            (0 16 17 1)
            (0 4 20 16)
            (1 2 6 5)
            (1 17 18 2)
            (2 3 7 6)
            (2 18 19 3)
            (3 19 23 7)
            (4 5 9 8)
            (4 8 24 20)
            (5 6 10 9)
            (6 7 11 10)
            (7 23 27 11)
            (8 9 13 12)
            (12 13 29 28)
            (8 12 28 24)
            (9 10 14 13)
            (13 14 30 29)
            (10 11 15 14)
            (14 15 31 30)
            (11 27 31 15)
            (16 32 33 17)
            (16 20 36 32)
            (17 33 34 18)
            (18 34 35 19)
            (19 35 39 23)
            (20 24 40 36)
            (23 39 43 27)
            (28 29 45 44)
            (24 28 44 40)
            (29 30 46 45)
            (30 31 47 46)
            (27 43 47 31)
            (48 52 53 49)
            (32 48 49 33)
            (32 36 52 48)
            (49 53 54 50)
            (33 49 50 34)
            (50 54 55 51)
            (34 50 51 35)
            (35 51 55 39)
            (52 56 57 53)
            (36 40 56 52)
            (53 57 58 54)
            (54 58 59 55)
            (39 55 59 43)
            (56 60 61 57)
            (44 45 61 60)
            (40 44 60 56)
            (57 61 62 58)
            (45 46 62 61)
            (58 62 63 59)
            (46 47 63 62)
            (43 59 63 47)
        );
    }
    AMI_background
    {
        type patch;
        faces
        (
            (21 25 26 22)
            (21 22 38 37)
            (21 37 41 25)
            (22 26 42 38)
            (25 41 42 26)
            (37 38 42 41)
        );
    }
);

mergePatchPairs
(
);
